/* This input file provides the adjustable run-time parameters for version 6 of
   the Modular Ocean Model (MOM6), a numerical ocean model developed at NOAA-GFDL.
   Where appropriate, parameters use usually given in MKS units.

   This particular file is for the example in solo_ocean/mixed_layer_restrat_2d.

   This MOM_input file typically contains only the non-default values that are
   needed to reproduce this example.  A full list of parameters for this example
   can be found in the corresponding MOM_parameter_doc.all file which is
   generated by the model at run-time. */

!SYMMETRIC_MEMORY_ = False      !   [Boolean]
                                ! If defined, the velocity point data domain includes
                                ! every face of the thickness points. In other words,
                                ! some arrays are larger than others, depending on where
                                ! they are on the staggered grid.  Also, the starting
                                ! index of the velocity-point arrays is usually 0, not 1.
                                ! This can only be set at compile time.
!STATIC_MEMORY_ = False         !   [Boolean]
                                ! If STATIC_MEMORY_ is defined, the principle variables
                                ! will have sizes that are statically determined at
                                ! compile time.  Otherwise the sizes are not determined
                                ! until run time. The STATIC option is substantially
                                ! faster, but does not allow the PE count to be changed
                                ! at run time.  This can only be set at compile time.
NIHALO = 4                      ! default = 2
                                ! The number of halo points on each side in the
                                ! x-direction.  With STATIC_MEMORY_ this is set as NIHALO_
                                ! in MOM_memory.h at compile time; without STATIC_MEMORY_
                                ! the default is NIHALO_ in MOM_memory.h (if defined) or 2.
NJHALO = 4                      ! default = 2
                                ! The number of halo points on each side in the
                                ! y-direction.  With STATIC_MEMORY_ this is set as NJHALO_
                                ! in MOM_memory.h at compile time; without STATIC_MEMORY_
                                ! the default is NJHALO_ in MOM_memory.h (if defined) or 2.
NIGLOBAL = 6                    !
                                ! The total number of thickness grid points in the
                                ! x-direction in the physical domain. With STATIC_MEMORY_
                                ! this is set in MOM_memory.h at compile time.
NJGLOBAL = 100                   !
                                ! The total number of thickness grid points in the
                                ! y-direction in the physical domain. With STATIC_MEMORY_
                                ! this is set in MOM_memory.h at compile time.
!NIPROC = 1                     !
                                ! The number of processors in the x-direction. With
                                ! STATIC_MEMORY_ this is set in MOM_memory.h at compile time.
!NJPROC = 2                     !
                                ! The number of processors in the x-direction. With
                                ! STATIC_MEMORY_ this is set in MOM_memory.h at compile time.
!LAYOUT = 1, 2                  !
                                ! The processor layout that was acutally used.
IO_LAYOUT = 1, 1                ! default = 0
                                ! The processor layout to be used, or 0,0 to automatically
                                ! set the io_layout to be the same as the layout.

! === module MOM_grid ===
! Parameters providing information about the vertical grid.
NK = 6                          !   [nondim]
                                ! The number of model layers.
NKBL = 2
NKML = 2

! === module MOM_verticalGrid ===
! Parameters providing information about the vertical grid.

! === module MOM ===
BULKMIXEDLAYER = True          !   [Boolean] default = True
                                ! If true, use a Kraus-Turner-like bulk mixed layer
                                ! with transitional buffer layers.  Layers 1 through
                                ! NKML+NKBL have variable densities. There must be at
                                ! least NKML+NKBL+1 layers if BULKMIXEDLAYER is true.
                                ! The default is the same setting as ENABLE_THERMODYNAMICS.


DYNAMIC_VISCOUS_ML = True
USE_REGRIDDING = False          !   [Boolean] default = False
                                ! If True, use the ALE algorithm (regridding/remapping).
                                ! If False, use the layered isopycnal algorithm.
DT = 300.0                      !   [s]
                                ! The (baroclinic) dynamics time step.  The time-step that
                                ! is actually used will be an integer fraction of the
                                ! forcing time-step (DT_FORCING in ocean-only mode or the
                                ! coupling timestep in coupled mode.)
DT_THERM = 1200.0

DT_BT_FILTER = 300.            !    Time-scale for filtering BT variables, in s.
DTBT = -0.9                     !    The barotropic time step, in s. DTBT is only
                                !  used with the split explicit time stepping.
                                !  To set the time step automatically based
                                !  the maximum stable value use 0, or a negative
                                !  value gives the fraction of the stable value.
                                !  The value of DTBT that will actually be used
                                !  is an integer fraction of DT, rounding down.
DTBT_RESET_PERIOD = 0.0         !    The period between recalculations of DTBT
                                !  of DTBT (if DTBT <= 0), in seconds.  If
                                !  DTBT_RESET_PERIOD is negative, DTBT is set
                                !  based only on information available at
                                !  initialization.  If dynamic, DTBT will be set
                                !  at least every forcing time step, and if 0,
                                !  every dynamics time step.
SAVE_INITIAL_CONDS = True       !   [Boolean] default = False
                                ! If true, write the initial conditions to a file given
                                ! by IC_OUTPUT_FILE.
IC_OUTPUT_FILE = "Initial_state" ! default = "MOM_IC"
                                ! The file into which to write the initial conditions.

! === module MOM_tracer_registry ===


! === module MOM_tracer_flow_control ===
INPUTDIR = "INPUT"              ! default = "."
                                ! The directory in which input files are found.
COORD_CONFIG = "file"         !
                                ! This specifies how layers are to be defined:
                                !     file - read coordinate information from the file
                                !       specified by (COORD_FILE).
                                !     linear - linear based on interfaces not layesrs.
                                !     ts_ref - use reference temperature and salinity
                                !     ts_range - use range of temperature and salinity
                                !       (T_REF and S_REF) to determine surface density
                                !       and GINT calculate internal densities.
                                !     gprime - use reference density (RHO_0) for surface
                                !       density and GINT calculate internal densities.
                                !     ts_profile - use temperature and salinity profiles
                                !       (read from COORD_FILE) to set layer densities.
                                !     USER - call a user modified routine.
COORD_FILE = "IC.nc"


! === module MOM_grid_init ===
GRID_FILE = "supergrid.nc"
GRID_CONFIG = "mosaic"          !
                                ! A character string that determines the method for
                                ! defining the horizontal grid.  Current options are:
                                !     mosaic - read the grid from a mosaic (supergrid)
                                !              file set by GRID_FILE.
                                !     cartesian - use a (flat) Cartesian grid.
                                !     spherical - use a simple spherical grid.
                                !     mercator - use a Mercator spherical grid.
TOPO_CONFIG = "flat"            !
                                ! This specifies how bathymetry is specified:
                                !     file - read bathymetric information from the file
                                !       specified by (TOPO_FILE).
                                !     flat - flat bottom set to MAXIMUM_DEPTH.
                                !     bowl - an analytically specified bowl-shaped basin
                                !       ranging between MAXIMUM_DEPTH and MINIMUM_DEPTH.
                                !     spoon - a similar shape to 'bowl', but with an vertical
                                !       wall at the southern face.
                                !     halfpipe - a zonally uniform channel with a half-sine
                                !       profile in the meridional direction.
                                !     benchmark - use the benchmark test case topography.
                                !     DOME - use a slope and channel configuration for the
                                !       DOME sill-overflow test case.
                                !     DOME2D - use a shelf and slope configuration for the
                                !       DOME2D gravity current/overflow test case.
                                !     seamount - Gaussian bump for spontaneous motion test case.
                                !     USER - call a user modified routine.
MINIMUM_DEPTH = 0.0             !   [m] default = 0.0
                                ! The minimum depth of the ocean.
MAXIMUM_DEPTH = 3000.0           !   [m]
                                ! The maximum depth of the ocean.
ROTATION = "2omegasinlat"          ! default = "2omegasinlat"
                                ! This specifies how the Coriolis parameter is specified:
                                !     2omegasinlat - Use twice the planetary rotation rate
                                !       times the sine of latitude.
                                !     betaplane - Use a beta-plane or f-plane.
                                !     USER - call a user modified routine.
THICKNESS_CONFIG = "file"       !
                                ! A string that determines how the initial layer
                                ! thicknesses are specified for a new run:
                                !     file - read interface heights from the file specified
                                !     thickness_file - read thicknesses from the file specified
                                !       by (THICKNESS_FILE).
                                !     uniform - uniform thickness layers evenly distributed
                                !       between the surface and MAXIMUM_DEPTH.
                                !     DOME - use a slope and channel configuration for the
                                !       DOME sill-overflow test case.
                                !     benchmark - use the benchmark test case thicknesses.
                                !     search - search a density profile for the interface
                                !       densities. This is not yet implemented.
                                !     circle_obcs - the circle_obcs test case is used.
                                !     DOME2D - 2D version of DOME initialization.
                                !     adjustment2d - TBD AJA.
                                !     sloshing - TBD AJA.
                                !     seamount - TBD AJA.
                                !     rossby_front - a mixed layer front in thermal wind balance.
                                !     USER - call a user modified routine.
THICKNESS_FILE="IC.nc"
TS_CONFIG = "file"      !
                                ! A string that determines how the initial tempertures
                                ! and salinities are specified for a new run:
                                !     file - read velocities from the file specified
                                !       by (TS_FILE).
                                !     fit - find the temperatures that are consistent with
                                !       the layer densities and salinity S_REF.
                                !     TS_profile - use temperature and salinity profiles
                                !       (read from TS_FILE) to set layer densities.
                                !     benchmark - use the benchmark test case T & S.
                                !     linear - linear in logical layer space.
                                !     DOME2D - 2D DOME initialization.
                                !     adjustment2d - TBD AJA.
                                !     sloshing - TBD AJA.
                                !     seamount - TBD AJA.
                                !     rossby_front - a mixed layer front in thermal wind balance.
                                !     USER - call a user modified routine.
TS_FILE = "IC.nc"
VELOCITY_CONFIG = "zero" ! default = "zero"
                                ! A string that determines how the initial velocities
                                ! are specified for a new run:
                                !     file - read velocities from the file specified
                                !       by (VELOCITY_FILE).
                                !     zero - the fluid is initially at rest.
                                !     uniform - the flow is uniform (determined by
                                !       parameters TORUS_U and TORUS_V).
                                !     rossby_front - a mixed layer front in thermal wind balance.
                                !     USER - call a user modified routine.

! === module MOM_MEKE ===
CDRAG = 0.0                     !   [nondim] default = 0.003
                                ! CDRAG is the drag coefficient relating the magnitude of
                                ! the velocity field to the bottom stress.

! === module MOM_lateral_mixing_coeffs ===
BE = 0.7                        !   [nondim] default = 0.6
                                ! If SPLIT is true, BE determines the relative weighting
                                ! of a  2nd-order Runga-Kutta baroclinic time stepping
                                ! scheme (0.5) and a backward Euler scheme (1) that is
                                ! used for the Coriolis and inertial terms.  BE may be
                                ! from 0.5 to 1, but instability may occur near 0.5.
                                ! BE is also applicable if SPLIT is false and USE_RK2
                                ! is true.
ETA_TOLERANCE = 1.0E-12         !   [m] default = 2.0E-09
                                ! The tolerance for the differences between the
                                ! barotropic and baroclinic estimates of the sea surface
                                ! height due to the fluxes through each face.  The total
                                ! tolerance for SSH is 4 times this value.  The default
                                ! is 0.5*NK*ANGSTROM, and this should not be set less x
                                ! than about 10^-15*MAXIMUM_DEPTH.
CORIOLIS_SCHEME = "SADOURNY75_ENERGY"
                                ! Selects the discretization of Coriolis terms.
                                ! Possible values are:
                                !   SADOURNY75_ENERGY - Sadourny's energy
                                !                       conserving scheme
                                !   ARAKAWA_HSU90     - Arakawa and Hsu's scheme
                                !   ROBUST_ENSTRO     - A pseudo-enstrophy
                                !                       conserving scheme, robust
                                !                       to vanishing thickness
KE_SCHEME = "KE_ARAKAWA"        !    Selects the discretization for the kinetic
                                !  energy in the Bernoulli function.  Possible
                                !  values are KE_ARAKAWA, KE_SIMPLE_GUDONOV,
                                !  and KE_GUDONOV.  KE_ARAKAWA is the default.
BOUND_CORIOLIS = True           !    If BOUND_CORIOLIS is defined, the Coriolis
                                !  terms at u points are bounded by the four
                                !  estimates of (f+rv)v from the four neighboring
                                !  v points, and similarly at v points. This
                                !  option would have no effect on the SADOURNY
                                !  scheme if it were possible to use centered
                                !  difference thickness fluxes.  In addition, if
                                !  SMAGORINSKY_AH is used, the biharmonic
                                !  viscosity is modified to include a term that
                                !  scales quadratically with the velocity
                                !  shears.
CORIOLIS_EN_DIS = True          !    If CORIOLIS_EN_DIS is defined, two estimates
                                !  of the thickness fluxes are used to estimate
                                !  the Coriolis term, and the one that dissipates
                                !  energy relative to the other one is used.

!  Specify the scheme for the continuity solver.
CONTINUITY_SCHEME = "PPM"       !  CONTINUTITY_SCHEME specifies the scheme used
                                !  for the continuity solver. PPM is currently
                                !  the only option, in which case a positive-
                                !  definite piecewise parabolic reconstruction
                                !  is used for the continuity solver.
CONTINUITY_CFL_LIMIT = 0.5      ! This is the CFL limit for corrections with
                                ! the PPM continuity scheme.
CONT_PPM_BETTER_ITER = True     !    If true, use the velocity change tolerance
                                !  to determine when to keep iterating with the
                                !  PPM continuity scheme.
CONT_PPM_USE_VISC_REM_MAX = True ! If true, use more appropriate limiting
                                ! bounds for corrections in viscous columns.

!  Specify the scheme for the vertical viscosity.
HARMONIC_VISC = False           !    If defined, use the harmonic mean thickness
                                !  for calculating the vertical viscosity.

!  Specify the scheme for the pressure gradient accelerations.
ANALYTIC_FV_PGF = True          !    If defined the pressure gradient forces
                                !  are calculated with a finite volume form that
                                !  analytically integrates the equations of state
                                !  in pressure to avoid any possibility of
                                !  numerical thermobaric instability.

!  Specify the scheme for the barotropic solver.
BOUND_BT_CORRECTION = True      !    If defined, the corrective pseudo mass-
                                !  fluxes into the barotropic solver are limited
                                !  to values that require less than 0.1*MAXVEL to
                                !  be accommodated.
BT_PROJECT_VELOCITY = True

INTERPOLATE_P_SURF = False      !  Interpolate surface pressure changes through the
                                !  barotropic solver.
BT_THICK_SCHEME = "FROM_BT_CONT"

DYNAMIC_SURFACE_PRESSURE = True
ICE_LENGTH_DYN_PSURF = 1.e3
CONST_DYN_PSURF = 0.9

TFREEZE_FORM = "MILLERO_78"
USE_RIGID_SEA_ICE = True
PRESSURE_DEPENDENT_FRAZIL = True


MASS_WEIGHT_IN_PRESSURE_GRADIENT = True !   [Boolean] default = False
                                ! If true, use mass weighting when interpolation T/S for
                                ! top/bottom integrals in AFV pressure gradient calculation.

!  Specify the properties of the active tracers and Eqn of state.
ENABLE_THERMODYNAMICS = True    !    Temperature and salinity are used as state
                                !  variables if ENABLE_THERMODYNAMICS is defined.
FRAZIL = True                   !    If FRAZIL is defined, water freezes if it
                                !  gets colder than the freezing point, and the
                                !  accumulated heat deficit is returned in the
                                !  surface state.
RECLAIM_FRAZIL = True           !    If defined, balance heat consumption by
                                !  frazil formation by cooling any overlying water
                                !  down to the freezing point to avoid creating
                                !  thin sea-ice for SSTs above freezing.
EQN_OF_STATE = "WRIGHT"         !    EQN_OF_STATE determines which ocean equation
                                !  of state should be used.  Currently, the valid
                                !  choices are "LINEAR", "UNESCO", and "WRIGHT".
                                !  The default is "WRIGHT", but this only matters
                                !  of USE_EOS is defined.
USE_EOS = True                  !    If USE_EOS is defined, density is calculated
                                !  from temperature and salinity with an equation
                                !  of state.  ENABLE_THERMODYNAMICS must be
                                !  defined if USE_EOS is.
BOUSSINESQ = True               !    If true, make the Boussinesq approximation.
P_REF = 2.0e7                   !    P_REF is the pressure that is used for
                                !  calculating the coordinate density, in Pa.
                                !  (1 Pa = 1e4 dbar, so 2e7 is common--ly used.)
RHO_0 = 1035.0                  !    RHO_0 is used in the Boussinesq
                                !  approximation to calculations of pressure and
                                !  pressure gradients, in units of kg m-3.
C_P = 3925.0                    !    C_P is the heat capacity of sea water in
                                !  J kg-1 K-1, approximated as a constant.
CORRECT_DENSITY = True          !    If CORRECT_DENSITY is defined, the layer
                                !  densities are restored toward their target
                                !  values by the diapycnal mixing.

! === module MOM_hor_visc ===
LAPLACIAN = True                !   [Boolean] default = False
                                ! If true, use a Laplacian horizontal viscosity.
BIHARMONIC = False              !   [Boolean] default = True
                                ! If true, se a biharmonic horizontal viscosity.
                                ! BIHARMONIC may be used with LAPLACIAN.
KH = 1.0E+04                    !   [m2 s-1] default = 0.0
                                ! The background Laplacian horizontal viscosity.
KH_VEL_SCALE = 0.003            !   [m s-1] default = 0.0
                                ! The velocity scale which is multiplied by the grid
                                ! spacing to calculate the Laplacian viscosity.
                                ! The final viscosity is the largest of this scaled
                                ! viscosity, the Smagorinsky viscosity and KH.

! === module MOM_vert_friction ===
DIRECT_STRESS = False            !   [Boolean] default = False
                                ! If true, the wind stress is distributed over the
                                ! topmost HMIX_STRESS of fluid (like in HYCOM), and KVML
                                ! may be set to a very small value.
U_TRUNC_FILE = "U_velocity_truncations" ! default = ""
                                ! The absolute path to a file into which the accelerations
                                ! leading to zonal velocity truncations are written.
                                ! Undefine this for efficiency if this diagnostic is not
                                ! needed.
V_TRUNC_FILE = "V_velocity_truncations" ! default = ""
                                ! The absolute path to a file into which the accelerations
                                ! leading to meridional velocity truncations are written.
                                ! Undefine this for efficiency if this diagnostic is not
                                ! needed.
HMIX_FIXED = 0.001              !   [m]
                                ! The prescribed depth over which the near-surface
                                ! viscosity and diffusivity are elevated when the bulk
                                ! mixed layer is not used.
KV = 1.0E-04                    !   [m2 s-1]
                                ! The background kinematic viscosity in the interior.
                                ! The molecular value, ~1e-6 m2 s-1, may be used.
HBBL = 0.001                    !   [m]
                                ! The thickness of a bottom boundary layer with a
                                ! viscosity of KVBBL if BOTTOMDRAGLAW is not defined, or
                                ! the thickness over which near-bottom velocities are
                                ! averaged for the drag law if BOTTOMDRAGLAW is defined
                                ! but LINEAR_DRAG is not.
MAXVEL = 10.0                   !   [m s-1] default = 3.0E+08
                                ! The maximum velocity allowed before the velocity
                                ! components are truncated.

! === module MOM_PointAccel ===

! === module MOM_set_visc ===
LINEAR_DRAG = True              !   [Boolean] default = False
                                ! If LINEAR_DRAG and BOTTOMDRAGLAW are defined the drag
                                ! law is cdrag*DRAG_BG_VEL*u.
DRAG_BG_VEL = 1.0E-04           !   [m s-1] default = 0.0
                                ! DRAG_BG_VEL is either the assumed bottom velocity (with
                                ! LINEAR_DRAG) or an unresolved  velocity that is
                                ! combined with the resolved velocity to estimate the
                                ! velocity magnitude.  DRAG_BG_VEL is only used when
                                ! BOTTOMDRAGLAW is defined.
BBL_THICK_MIN = 0.1             !   [m] default = 0.0
                                ! The minimum bottom boundary layer thickness that can be
                                ! used with BOTTOMDRAGLAW. This might be
                                ! Kv / (cdrag * drag_bg_vel) to give Kv as the minimum
                                ! near-bottom viscosity.

! === module MOM_barotropic ===
! === module MOM_thickness_diffuse ===
KHTH = 1.0E-04                  !   [m2 s-1] default = 0.0
                                ! The background horizontal thickness diffusivity.

! === module MOM_mixed_layer ===
BULK_RI_ML = 0.05               !   [nondim]
                                ! The efficiency with which mean kinetic energy released
                                ! by mechanically forced entrainment of the mixed layer
                                ! is converted to turbulent kinetic energy.
ABSORB_ALL_SW = True            !   [Boolean] default = False
                                ! If true,  all shortwave radiation is absorbed by the
                                ! ocean, instead of passing through to the bottom mud.
HMIX_MIN = 2.0                  !   [m] default = 0.0
                                ! The minimum mixed layer depth if the mixed layer depth
                                ! is determined dynamically.
LIMIT_BUFFER_DETRAIN = True     !   [Boolean] default = False
                                ! If true, limit the detrainment from the buffer layers
                                ! to not be too different from the neighbors.
DEPTH_LIMIT_FLUXES = 0.1        !   [m] default = 0.2
                                ! The surface fluxes are scaled away when the total ocean
                                ! depth is less than DEPTH_LIMIT_FLUXES.
ML_RESORT = True                !   [Boolean] default = False
                                ! If true, resort the topmost layers by potential density
                                ! before the mixed layer calculations.
ML_PRESORT_NK_CONV_ADJ = 4      !   [nondim] default = 0
                                ! Convectively mix the first ML_PRESORT_NK_CONV_ADJ
                                ! layers before sorting when ML_RESORT is true.
CORRECT_ABSORPTION_DEPTH = True !   [Boolean] default = False
                                ! If true, the depth at which penetrating shortwave
                                ! radiation is absorbed is corrected by moving some of
                                ! the heating upward in the water column.

! === module MOM_mixed_layer_restrat ===
MIXEDLAYER_RESTRAT = True       !   [Boolean] default = False
                                ! If true, a density-gradient dependent re-stratifying
                                ! flow is imposed in the mixed layer.
                                ! This is only used if BULKMIXEDLAYER is true.
FOX_KEMPER_ML_RESTRAT_COEF = 10.0 !   [nondim] default = 0.0